/batch
*get,_wallstrt,active,,time,wall
! ANSYS input file written by Workbench version 17.2 RELEASE
! File used for geometry attach: Z:\Betreute Studentische Arbeiten\Projektarbeit Qian Sun\Programme\Platte\Vergleich_Ansys_files\dp0\SYS\DM\SYS.agdb
/title,Vergleich_Ansys--Modalanalyse (C5)
*DIM,_wb_ProjectScratch_dir,string,248
_wb_ProjectScratch_dir(1) = 'Z:\Betreute Studentische Arbeiten\Projektarbeit Qian Sun\Programme\Platte\_ProjectScratch\Scr4527\'
*DIM,_wb_SolverFiles_dir,string,248
_wb_SolverFiles_dir(1) = 'Z:\Betreute Studentische Arbeiten\Projektarbeit Qian Sun\Programme\Platte\Vergleich_Ansys_files\dp0\SYS-2\MECH\'
*DIM,_wb_userfiles_dir,string,248
_wb_userfiles_dir(1) = 'Z:\Betreute Studentische Arbeiten\Projektarbeit Qian Sun\Programme\Platte\Vergleich_Ansys_files\user_files\'
/com,--- Data in consistent MKS units. See Solving Units in the help system for more information.
/units,MKS
/nopr
/wb,file,start              !  signify a WB generated input file
/prep7
! Turn off shape checking because checks already performed inside WB mesher.
! See help system for more information.
SHPP,OFF,,NOWARN
/nolist
etcon,set             ! allow ANSYS to choose best KEYOP's for 180x elements
/com,*********** Nodes for the whole assembly ***********
nblock,3
(1i9,3e20.9e3)
        1    0.000000000E+000    0.000000000E+000    2.000000000E+000
        2    2.000000000E+000    0.000000000E+000    2.000000000E+000
        3    2.039627745E-002    0.000000000E+000    2.000000000E+000
        4    4.070134677E-002    0.000000000E+000    2.000000000E+000
        5    6.099497557E-002    0.000000000E+000    2.000000000E+000
        6    8.127724277E-002    0.000000000E+000    2.000000000E+000
        7    1.015482130E-001    0.000000000E+000    2.000000000E+000
        8    1.218079508E-001    0.000000000E+000    2.000000000E+000
        9    1.420565384E-001    0.000000000E+000    2.000000000E+000
       10    1.622940336E-001    0.000000000E+000    2.000000000E+000
       11    1.825205142E-001    0.000000000E+000    2.000000000E+000
       12    2.027360579E-001    0.000000000E+000    2.000000000E+000
       13    2.229407239E-001    0.000000000E+000    2.000000000E+000
       14    2.431346046E-001    0.000000000E+000    2.000000000E+000
       15    2.633177619E-001    0.000000000E+000    2.000000000E+000
       16    2.834902757E-001    0.000000000E+000    2.000000000E+000
       17    3.036522310E-001    0.000000000E+000    2.000000000E+000
       18    3.238036905E-001    0.000000000E+000    2.000000000E+000
       19    3.439447458E-001    0.000000000E+000    2.000000000E+000
       20    3.640754731E-001    0.000000000E+000    2.000000000E+000
! ... 10182 like lines cut
/wb,elem,start            !  set before creation of elements
/com,*********** Elements for Body 1 "Schalenk_rper" ***********
et,1,181
keyo,1,3,2
eblock,19,solid,,10000
(19i9)
        1        1        1        1        0        0        0        0        4        0        1     4586     8913     5003     4786
        1        1        1        1        0        0        0        0        4        0        2     4586     4587     5004     8913
        1        1        1        1        0        0        0        0        4        0        3      407      402      401      403
        1        1        1        1        0        0        0        0        4        0        4      404      406      405      401
        1        1        1        1        0        0        0        0        4        0        5      401      402      408      404
        1        1        1        1        0        0        0        0        4        0        6      405      409      403      401
        1        1        1        1        0        0        0        0        4        0        7      406      418     7118      405
        1        1        1        1        0        0        0        0        4        0        8      404     9805      410      406
        1        1        1        1        0        0        0        0        4        0        9      403     9048      411      407
        1        1        1        1        0        0        0        0        4        0       10      407      415      414      402
        1        1        1        1        0        0        0        0        4        0       11      414      412      408      402
        1        1        1        1        0        0        0        0        4        0       12      403      409      417     9048
        1        1        1        1        0        0        0        0        4        0       13      404      408      413     9805
        1        1        1        1        0        0        0        0        4        0       14     7118      416      409      405
        1        1        1        1        0        0        0        0        4        0       15      410      419      418      406
        1        1        1        1        0        0        0        0        4        0       16      411      420      415      407
        1        1        1        1        0        0        0        0        4        0       17      412      421      413      408
        1        1        1        1        0        0        0        0        4        0       18      416     7838      417      409
        1        1        1        1        0        0        0        0        4        0       19     9805     8330      423      410
        1        1        1        1        0        0        0        0        4        0       20      410      423     7949      419
! ... 9981 like lines cut
!Material Id = {101B6EDB-3A10-4CDB-92A1-CF87722187D4}
/wb,elem,end               !  done creating elements
/com,*********** Send User Defined Coordinate System(s) ***********
csys,0
toffst,273.15,  ! Temperature offset from absolute zero
/com,*********** Set Reference Temperature ***********
tref,22.
/wb,mat,start              !  starting to send materials
/com,*********** Send Materials ***********
MP,DENS,1,7850,	! kg m^-3
MP,ALPX,1,1.2e-05,	! C^-1
MP,C,1,434,	! J kg^-1 C^-1
MP,KXX,1,60.5,	! W m^-1 C^-1
MP,RSVX,1,1.7e-07,	! kg m^3 A^-2 s^-3
MP,EX,1,210000000000,	! Pa
MP,NUXY,1,0.3,
MP,MURX,1,10000,

/wb,mat,end                !  done sending materials
/com,*********** Send Sheet Properties ***********
sectype,1,shell
secdata,1.e-002
secoff,mid
!************************* Model Summary ********************
!Schalenk_rper,	Baustahl,	matid,	1
!************************* End Model Summary ********************
! get the diagonal of the bounding box. Needed later for other things
*get,_xmin,node,,mnloc,x
*get,_ymin,node,,mnloc,y
*get,_zmin,node,,mnloc,z
*get,_xmax,node,,mxloc,x
*get,_ymax,node,,mxloc,y
*get,_zmax,node,,mxloc,z
_ASMDIAG=(_xmax-_xmin)*(_xmax-_xmin)+(_ymax-_ymin)*(_ymax-_ymin)+(_zmax-_zmin)*(_zmax-_zmin)
_ASMDIAG=SQRT(_ASMDIAG)
/wb,contact,start          !  starting to send contact
/wb,contact,end            !  done creating contacts
/golist
/wb,load,start             !  starting to send loads
/com,*********** Fixed Supports ***********
CMBLOCK,_FIXEDSU,NODE,      101
(8i10)
         1       102       103       104       105       106       107       108
       109       110       111       112       113       114       115       116
       117       118       119       120       121       122       123       124
       125       126       127       128       129       130       131       132
       133       134       135       136       137       138       139       140
       141       142       143       144       145       146       147       148
       149       150       151       152       153       154       155       156
       157       158       159       160       161       162       163       164
       165       166       167       168       169       170       171       172
       173       174       175       176       177       178       179       180
       181       182       183       184       185       186       187       188
       189       190       191       192       193       194       195       196
       197       198       199       200       201
cmsel,s,_FIXEDSU
d,all,all
nsel,all
/com,******* Constant Zero Displacement X *******
CMBLOCK,_DISPZEROUX,NODE,      299
(8i10)
         2         3         4         5         6         7         8         9
        10        11        12        13        14        15        16        17
        18        19        20        21        22        23        24        25
        26        27        28        29        30        31        32        33
        34        35        36        37        38        39        40        41
        42        43        44        45        46        47        48        49
        50        51        52        53        54        55        56        57
        58        59        60        61        62        63        64        65
        66        67        68        69        70        71        72        73
        74        75        76        77        78        79        80        81
        82        83        84        85        86        87        88        89
        90        91        92        93        94        95        96        97
        98        99       100       101       202       203       204       205
       206       207       208       209       210       211       212       213
       214       215       216       217       218       219       220       221
       222       223       224       225       226       227       228       229
       230       231       232       233       234       235       236       237
       238       239       240       241       242       243       244       245
       246       247       248       249       250       251       252       253
       254       255       256       257       258       259       260       261
! ... 18 like lines cut
cmsel,s,_DISPZEROUX
d,all,ux,0
nsel,all
/com,******* Constant Zero Displacement Y *******
CMBLOCK,_DISPZEROUY,NODE,      299
(8i10)
         2         3         4         5         6         7         8         9
        10        11        12        13        14        15        16        17
        18        19        20        21        22        23        24        25
        26        27        28        29        30        31        32        33
        34        35        36        37        38        39        40        41
        42        43        44        45        46        47        48        49
        50        51        52        53        54        55        56        57
        58        59        60        61        62        63        64        65
        66        67        68        69        70        71        72        73
        74        75        76        77        78        79        80        81
        82        83        84        85        86        87        88        89
        90        91        92        93        94        95        96        97
        98        99       100       101       202       203       204       205
       206       207       208       209       210       211       212       213
       214       215       216       217       218       219       220       221
       222       223       224       225       226       227       228       229
       230       231       232       233       234       235       236       237
       238       239       240       241       242       243       244       245
       246       247       248       249       250       251       252       253
       254       255       256       257       258       259       260       261
! ... 18 like lines cut
cmsel,s,_DISPZEROUY
d,all,uy,0
nsel,all
/com,******* Constant Zero Displacement Z *******
CMBLOCK,_DISPZEROUZ,NODE,      299
(8i10)
         2         3         4         5         6         7         8         9
        10        11        12        13        14        15        16        17
        18        19        20        21        22        23        24        25
        26        27        28        29        30        31        32        33
        34        35        36        37        38        39        40        41
        42        43        44        45        46        47        48        49
        50        51        52        53        54        55        56        57
        58        59        60        61        62        63        64        65
        66        67        68        69        70        71        72        73
        74        75        76        77        78        79        80        81
        82        83        84        85        86        87        88        89
        90        91        92        93        94        95        96        97
        98        99       100       101       202       203       204       205
       206       207       208       209       210       211       212       213
       214       215       216       217       218       219       220       221
       222       223       224       225       226       227       228       229
       230       231       232       233       234       235       236       237
       238       239       240       241       242       243       244       245
       246       247       248       249       250       251       252       253
       254       255       256       257       258       259       260       261
! ... 18 like lines cut
cmsel,s,_DISPZEROUZ
d,all,uz,0
nsel,all
nsel,all
/gst,on,on
fini
*get,_numnode,node,0,count
*get,_numelem,elem,0,count
*get, _MAXELEMNUM, elem, 0, NUM, MAX
*get, _MAXNODENUM, node, 0, NUM, MAX
*get, _MAXELEMTYPE, etyp, 0, NUM, MAX
*get, _MAXREALCONST, real, 0, NUM, MAX
/go
/wb,load,end               !  done creating loads
/com,--- Number of total nodes = %_numnode%
/com,--- Number of contact elements = 0
/com,--- Number of spring elements = 0
/com,--- Number of bearing elements = 0
/com,--- Number of solid elements = 10000
/com,--- Number of total elements = %_numelem%
*get,_wallbsol,active,,time,wall
/solu
antype,2                   ! modal analysis
modopt,lanb,10
outres,erase
outres,all,none
outres,nsol,all
mxpand                    ! default expand in case of complex solution
! *********** WB SOLVE COMMAND ***********
! check interactive state
*get,ANSINTER_,active,,int
*if,ANSINTER_,ne,0,then
/eof
*endif
solve
/com *************** Write FE CONNECTORS ********* 
CEWRITE,file,ce,,INTE
*get,_nmodalsolproc,active,0,numcpu
fini
/nopr
*get,_numnode,node,0,count
*get,_numelem,elem,0,count
*get, _MAXELEMNUM, elem, 0, NUM, MAX
*get, _MAXNODENUM, node, 0, NUM, MAX,,,INTERNAL
*get, _MAXELEMTYPE, etyp, 0, NUM, MAX
*get, _MAXREALCONST, real, 0, NUM, MAX
/gopr
*get,_wallasol,active,,time,wall
/post1
/nopr
*dim,_direction,CHAR,6,1
_direction(1) = 'X'
_direction(2) = 'Y'
_direction(3) = 'Z'
_direction(4) = 'ROTX'
_direction(5) = 'ROTY'
_direction(6) = 'ROTZ'
*get,_nummodes,active,0,set,nset
*do,i_mode,1,_nummodes
   *do,j_component,1,6
			*get,PFACT_%i_mode%_%j_component%,MODE,%i_mode%,PFACT,,DIREC,_direction(%j_component%)
   *enddo
*enddo
/gopr
xmlo,ENCODING,ISO-8859-1
xmlo,parm
/xml,parm,xml
fini
/gopr
*get,_walldone,active,,time,wall
_preptime=(_wallbsol-_wallstrt)*3600
_solvtime=(_wallasol-_wallbsol)*3600
_posttime=(_walldone-_wallasol)*3600
_totaltim=(_walldone-_wallstrt)*3600
/wb,file,end               ! done with WB generated input
