/batch
/config,noeldb,1     ! force off writing results to database
*get,_wallstrt,active,,time,wall
! ANSYS input file written by Workbench version 19.2 RELEASE
! File used for geometry attach: C:\Users\sq437\Google ‘∆∂À”≤≈Ã\Projektarbeit\Analytisch Platte\Vergleich_Ansys_files\dp0\SYS\DM\SYS.agdb
/title,Vergleich_Ansys--Modalanalyse (A5)
*DIM,_wb_ProjectScratch_dir,string,248
_wb_ProjectScratch_dir(1) = 'C:\Users\sq437\Google ‘∆∂À”≤≈Ã\Projektarbeit\Analytisch Platte\_ProjectScratch\Scr1662\'
*DIM,_wb_SolverFiles_dir,string,248
_wb_SolverFiles_dir(1) = 'C:\Users\sq437\Google ‘∆∂À”≤≈Ã\Projektarbeit\Analytisch Platte\Vergleich_Ansys_files\dp0\SYS\MECH\'
*DIM,_wb_userfiles_dir,string,248
_wb_userfiles_dir(1) = 'C:\Users\sq437\Google ‘∆∂À”≤≈Ã\Projektarbeit\Analytisch Platte\Vergleich_Ansys_files\user_files\'
/com,--- Data in consistent MKS units. See Solving Units in the help system for more information.
/units,MKS
/nopr
/wb,file,start              !  signify a WB generated input file
/prep7
! Turn off shape checking because checks already performed inside WB mesher.
! See help system for more information.
SHPP,OFF,,NOWARN
/nolist
etcon,set             ! allow ANSYS to choose best KEYOP's for 180x elements
/com,*********** Nodes for the whole assembly ***********
nblock,3,,11221
(1i9,3e20.9e3)
        1     0.000000000E+00     0.000000000E+00     2.000000000E+00
        2     2.000000000E+00     0.000000000E+00     2.000000000E+00
        3     2.039627745E-02     0.000000000E+00     2.000000000E+00
        4     4.070134677E-02     0.000000000E+00     2.000000000E+00
        5     6.099497557E-02     0.000000000E+00     2.000000000E+00
        6     8.127724277E-02     0.000000000E+00     2.000000000E+00
        7     1.015482130E-01     0.000000000E+00     2.000000000E+00
        8     1.218079508E-01     0.000000000E+00     2.000000000E+00
        9     1.420565384E-01     0.000000000E+00     2.000000000E+00
       10     1.622940336E-01     0.000000000E+00     2.000000000E+00
       11     1.825205142E-01     0.000000000E+00     2.000000000E+00
       12     2.027360579E-01     0.000000000E+00     2.000000000E+00
       13     2.229407239E-01     0.000000000E+00     2.000000000E+00
       14     2.431346046E-01     0.000000000E+00     2.000000000E+00
       15     2.633177619E-01     0.000000000E+00     2.000000000E+00
       16     2.834902757E-01     0.000000000E+00     2.000000000E+00
       17     3.036522310E-01     0.000000000E+00     2.000000000E+00
       18     3.238036905E-01     0.000000000E+00     2.000000000E+00
       19     3.439447458E-01     0.000000000E+00     2.000000000E+00
       20     3.640754731E-01     0.000000000E+00     2.000000000E+00
! ... 10182 like lines cut
/wb,elem,start            !  set before creation of elements
/com,*********** Elements for Body 1 "Schalenk_rper" ***********
et,1,181
keyo,1,3,2
eblock,19,solid,,10000
(19i9)
        1        1        1        1        0        0        0        0        4        0        1     4586     8913     5003     4786
        1        1        1        1        0        0        0        0        4        0        2     4586     4587     5004     8913
        1        1        1        1        0        0        0        0        4        0        3      407      402      401      403
        1        1        1        1        0        0        0        0        4        0        4      404      406      405      401
        1        1        1        1        0        0        0        0        4        0        5      401      402      408      404
        1        1        1        1        0        0        0        0        4        0        6      405      409      403      401
        1        1        1        1        0        0        0        0        4        0        7      406      418     7118      405
        1        1        1        1        0        0        0        0        4        0        8      404     9805      410      406
        1        1        1        1        0        0        0        0        4        0        9      403     9048      411      407
        1        1        1        1        0        0        0        0        4        0       10      407      415      414      402
        1        1        1        1        0        0        0        0        4        0       11      414      412      408      402
        1        1        1        1        0        0        0        0        4        0       12      403      409      417     9048
        1        1        1        1        0        0        0        0        4        0       13      404      408      413     9805
        1        1        1        1        0        0        0        0        4        0       14     7118      416      409      405
        1        1        1        1        0        0        0        0        4        0       15      410      419      418      406
        1        1        1        1        0        0        0        0        4        0       16      411      420      415      407
        1        1        1        1        0        0        0        0        4        0       17      412      421      413      408
        1        1        1        1        0        0        0        0        4        0       18      416     7838      417      409
        1        1        1        1        0        0        0        0        4        0       19     9805     8330      423      410
        1        1        1        1        0        0        0        0        4        0       20      410      423     7949      419
! ... 9981 like lines cut
!Material Id = {1C4577A9-8CC4-4B0B-AF29-559AF6068909}
/wb,elem,end               !  done creating elements
/com,*********** Send User Defined Coordinate System(s) ***********
csys,0
toffst,273.15,  ! Temperature offset from absolute zero
/com,*********** Set Reference Temperature ***********
tref,22.
/wb,mat,start              !  starting to send materials
/com,*********** Send Materials ***********
MP,DENS,1,7850,	! kg m^-3
MP,ALPX,1,1.2e-05,	! C^-1
MP,C,1,434,	! J kg^-1 C^-1
MP,KXX,1,60.5,	! W m^-1 C^-1
MP,RSVX,1,1.7e-07,	! kg m^3 A^-2 s^-3
MP,EX,1,210000000000,	! Pa
MP,NUXY,1,0.3,
MP,MURX,1,10000,

/wb,mat,end                !  done sending materials
/com,*********** Send Sheet Properties ***********
sectype,1,shell
secdata,1.e-002
secoff,mid

!************************* Model Summary ********************
!Schalenk_rper,	Baustahl,	matid,	1
!************************* End Model Summary ********************
! get the diagonal of the bounding box. Needed later for other things
*get,_xmin,node,,mnloc,x
*get,_ymin,node,,mnloc,y
*get,_zmin,node,,mnloc,z
*get,_xmax,node,,mxloc,x
*get,_ymax,node,,mxloc,y
*get,_zmax,node,,mxloc,z
_ASMDIAG=(_xmax-_xmin)*(_xmax-_xmin)+(_ymax-_ymin)*(_ymax-_ymin)+(_zmax-_zmin)*(_zmax-_zmin)
_ASMDIAG=SQRT(_ASMDIAG)
/wb,contact,start          !  starting to send contact
/wb,contact,end            !  done creating contacts
/golist
/wb,load,start             !  starting to send loads
/com,*********** Fixed Supports ***********
CMBLOCK,_FIXEDSU,NODE,      101
(8i10)
         1       102       103       104       105       106       107       108
       109       110       111       112       113       114       115       116
       117       118       119       120       121       122       123       124
       125       126       127       128       129       130       131       132
       133       134       135       136       137       138       139       140
       141       142       143       144       145       146       147       148
       149       150       151       152       153       154       155       156
       157       158       159       160       161       162       163       164
       165       166       167       168       169       170       171       172
       173       174       175       176       177       178       179       180
       181       182       183       184       185       186       187       188
       189       190       191       192       193       194       195       196
       197       198       199       200       201
cmsel,s,_FIXEDSU
d,all,all
nsel,all
/gst,on,on
fini
*get,_numnode,node,0,count
*get,_numelem,elem,0,count
*get, _MAXELEMNUM, elem, 0, NUM, MAX
*get, _MAXNODENUM, node, 0, NUM, MAX
*get, _MAXELEMTYPE, etyp, 0, NUM, MAX
*get, _MAXREALCONST, real, 0, NUM, MAX
/go
/wb,load,end               !  done creating loads
/com,--- Number of total nodes = %_numnode%
/com,--- Number of contact elements = 0
/com,--- Number of spring elements = 0
/com,--- Number of bearing elements = 0
/com,--- Number of solid elements = 10000
/com,--- Number of condensed parts = 0
/com,--- Number of total elements = %_numelem%
*get,_wallbsol,active,,time,wall
/solu
antype,2                   ! modal analysis
modopt,lanb,10
outres,erase
outres,all,none
outres,nsol,all
mxpand                    ! default expand in case of complex solution
dmpopt,esav,no
dmpopt,emat,no
dmpopt,full,no
! *********** WB SOLVE COMMAND ***********
! check interactive state
*get,ANSINTER_,active,,int
*if,ANSINTER_,ne,0,then
/eof
*endif
solve
/com *************** Write FE CONNECTORS ********* 
CEWRITE,file,ce,,INTE
*get,_nmodalsolproc,active,0,numcpu
fini
/nopr
*get,_numnode,node,0,count
*get,_numelem,elem,0,count
*get, _MAXELEMNUM, elem, 0, NUM, MAX
*get, _MAXNODENUM, node, 0, NUM, MAX,,,INTERNAL
*get, _MAXELEMTYPE, etyp, 0, NUM, MAX
*get, _MAXREALCONST, real, 0, NUM, MAX
/gopr
*get,_wallasol,active,,time,wall
/post1
/nopr
*dim,_direction,CHAR,6,1
_direction(1) = 'X'
_direction(2) = 'Y'
_direction(3) = 'Z'
_direction(4) = 'ROTX'
_direction(5) = 'ROTY'
_direction(6) = 'ROTZ'
*get,_lastLS,active,0,set,LSTP
*get,_beginset,active,0,set,nset,first,_lastLS
*get,_endset,active,0,set,nset,last,_lastLS
_nummodes = _endset - _beginset + 1
*do,i_mode,1,_nummodes
   *do,j_component,1,6
			*get,PFACT_%i_mode%_%j_component%,MODE,%i_mode%,PFACT,,DIREC,_direction(%j_component%)
   *enddo
*enddo
*dim,_tmdirection,CHAR,6,1
_tmdirection(1) = 'X'
_tmdirection(2) = 'Y'
_tmdirection(3) = 'Z'
_tmdirection(4) = 'X'
_tmdirection(5) = 'Y'
_tmdirection(6) = 'Z'
*do,j_component,1,6
    *if,j_component,gt,3,then
        *get,TOTALMASS_%j_component%,ELEM,0,IOR,_tmdirection(%j_component%)
    *else
        *get,TOTALMASS_%j_component%,ELEM,0,MTOT,_tmdirection(%j_component%)
    *endif
*enddo
/gopr
xmlo,ENCODING,ISO-8859-1
xmlo,parm
/xml,parm,xml
fini
/gopr
*get,_walldone,active,,time,wall
_preptime=(_wallbsol-_wallstrt)*3600
_solvtime=(_wallasol-_wallbsol)*3600
_posttime=(_walldone-_wallasol)*3600
_totaltim=(_walldone-_wallstrt)*3600
/wb,file,end               ! done with WB generated input
