
 ANSYS Mechanical Enterprise                       


 *------------------------------------------------------------------*
 |                                                                  |
 |   W E L C O M E   T O   T H E   A N S Y S (R)  P R O G R A M     |
 |                                                                  |
 *------------------------------------------------------------------*




 ***************************************************************
 *            ANSYS Release 19.2     LEGAL NOTICES             *
 ***************************************************************
 *                                                             *
 * Copyright 1971-2018 ANSYS, Inc.  All rights reserved.       *
 * Unauthorized use, distribution or duplication is            *
 * prohibited.                                                 *
 *                                                             *
 * Ansys is a registered trademark of ANSYS, Inc. or its       *
 * subsidiaries in the United States or other countries.       *
 * See the ANSYS, Inc. online documentation or the ANSYS, Inc. *
 * documentation CD or online help for the complete Legal      *
 * Notice.                                                     *
 *                                                             *
 ***************************************************************
 *                                                             *
 * THIS ANSYS SOFTWARE PRODUCT AND PROGRAM DOCUMENTATION       *
 * INCLUDE TRADE SECRETS AND CONFIDENTIAL AND PROPRIETARY      *
 * PRODUCTS OF ANSYS, INC., ITS SUBSIDIARIES, OR LICENSORS.    *
 * The software products and documentation are furnished by    *
 * ANSYS, Inc. or its subsidiaries under a software license    *
 * agreement that contains provisions concerning               *
 * non-disclosure, copying, length and nature of use,          *
 * compliance with exporting laws, warranties, disclaimers,    *
 * limitations of liability, and remedies, and other           *
 * provisions.  The software products and documentation may be *
 * used, disclosed, transferred, or copied only in accordance  *
 * with the terms and conditions of that software license      *
 * agreement.                                                  *
 *                                                             *
 * ANSYS, Inc. is a UL registered                              *
 * ISO 9001:2008 company.                                      *
 *                                                             *
 ***************************************************************
 *                                                             *
 * This product is subject to U.S. laws governing export and   *
 * re-export.                                                  *
 *                                                             *
 * For U.S. Government users, except as specifically granted   *
 * by the ANSYS, Inc. software license agreement, the use,     *
 * duplication, or disclosure by the United States Government  *
 * is subject to restrictions stated in the ANSYS, Inc.        *
 * software license agreement and FAR 12.212 (for non-DOD      *
 * licenses).                                                  *
 *                                                             *
 ***************************************************************

 Release 19.2
     
 Point Releases and Patches installed:   
     
 ANSYS, Inc. Products Release 19.2   
 SpaceClaim Release 19.2 
 AIM Release 19.2
 Autodyn Release 19.2
 LS-DYNA Release 19.2
 CFX (includes CFD-Post) Release 19.2
 Chemkin Release 19.2
 EnSight Release 19.2
 FENSAP-ICE Release 19.2 
 Fluent (includes CFD-Post) Release 19.2 
 Forte Release 19.2  
 Polyflow (includes CFD-Post) Release 19.2   
 TurboGrid Release 19.2  
 ICEM CFD Release 19.2   
 Aqwa Release 19.2   
 Mechanical Products Release 19.2
 Icepak (includes CFD-Post) Release 19.2 
 ACIS Geometry Interface Release 19.2
 AutoCAD Geometry Interface Release 19.2 
 Catia, Version 4 Geometry Interface Release 19.2
 Catia, Version 6 Geometry Interface Release 19.2
 Creo Elements/Direct Modeling Geometry Interface Release 19.2   
 Creo Parametric Geometry Interface Release 19.2 
 Inventor Geometry Interface Release 19.2
 JTOpen Geometry Interface Release 19.2  
 NX Geometry Interface Release 19.2  
 Parasolid Geometry Interface  Release 19.2  
 Solid Edge Geometry Interface Release 19.2  
 SOLIDWORKS Geometry Interface Release 19.2  
 ANSYS, Inc. License Manager Release 19.2


          *****  ANSYS COMMAND LINE ARGUMENTS  *****
  BATCH MODE REQUESTED (-b)    = NOLIST
  INPUT FILE COPY MODE (-c)    = COPY
  DISTRIBUTED MEMORY PARALLEL REQUESTED
       2 PARALLEL PROCESSES REQUESTED WITH SINGLE THREAD PER PROCESS
    TOTAL OF     2 CORES REQUESTED
  MPI OPTION                   = INTELMPI
  INPUT FILE NAME              = C:\Users\sq437\Google ‘∆∂À”≤≈Ã\Projektarbeit\Analytisch Platte\_ProjectScratch\Scr1662\dummy.dat
  OUTPUT FILE NAME             = C:\Users\sq437\Google ‘∆∂À”≤≈Ã\Projektarbeit\Analytisch Platte\_ProjectScratch\Scr1662\solve.out
  START-UP FILE MODE           = NOREAD
  STOP FILE MODE               = NOREAD

 RELEASE= Release 19.2         BUILD= 19.2      UP20180808   VERSION=WINDOWS x64 
 CURRENT JOBNAME=file0  17:31:25  FEB 09, 2019 CP=      0.344


 PARAMETER _DS_PROGRESS =     999.0000000    

 /INPUT FILE= ds.dat  LINE=       0



 *** NOTE ***                            CP =       0.516   TIME= 17:31:25
 The /CONFIG,NOELDB command is not valid in a Distributed ANSYS          
 solution.  Command is ignored.                                          

 *GET  _WALLSTRT  FROM  ACTI  ITEM=TIME WALL  VALUE=  17.5236111    

 TITLE= 
 Vergleich_Ansys--Modalanalyse (A5)                                            


 SET PARAMETER DIMENSIONS ON  _WB_PROJECTSCRATCH_DIR
  TYPE=STRI  DIMENSIONS=      248        1        1

 PARAMETER _WB_PROJECTSCRATCH_DIR(1) = C:\Users\sq437\Google ‘∆∂À”≤≈Ã\Projektarbeit\Analytisch Platte\_ProjectScratch\Scr1662\

 SET PARAMETER DIMENSIONS ON  _WB_SOLVERFILES_DIR
  TYPE=STRI  DIMENSIONS=      248        1        1

 PARAMETER _WB_SOLVERFILES_DIR(1) = C:\Users\sq437\Google ‘∆∂À”≤≈Ã\Projektarbeit\Analytisch Platte\Vergleich_Ansys_files\dp0\SYS\MECH\

 SET PARAMETER DIMENSIONS ON  _WB_USERFILES_DIR
  TYPE=STRI  DIMENSIONS=      248        1        1

 PARAMETER _WB_USERFILES_DIR(1) = C:\Users\sq437\Google ‘∆∂À”≤≈Ã\Projektarbeit\Analytisch Platte\Vergleich_Ansys_files\user_files\
 --- Data in consistent MKS units. See Solving Units in the help system for more

 MKS UNITS SPECIFIED FOR INTERNAL    
  LENGTH        (l)  = METER (M)
  MASS          (M)  = KILOGRAM (KG)
  TIME          (t)  = SECOND (SEC)
  TEMPERATURE   (T)  = CELSIUS (C)
  TOFFSET            = 273.0
  CHARGE        (Q)  = COULOMB
  FORCE         (f)  = NEWTON (N) (KG-M/SEC2)
  HEAT               = JOULE (N-M)

  PRESSURE           = PASCAL (NEWTON/M**2)
  ENERGY        (W)  = JOULE (N-M)
  POWER         (P)  = WATT (N-M/SEC)
  CURRENT       (i)  = AMPERE (COULOMBS/SEC)
  CAPACITANCE   (C)  = FARAD
  INDUCTANCE    (L)  = HENRY
  MAGNETIC FLUX      = WEBER
  RESISTANCE    (R)  = OHM
  ELECTRIC POTENTIAL = VOLT

 INPUT  UNITS ARE ALSO SET TO MKS 

 *** ANSYS - ENGINEERING ANALYSIS SYSTEM  RELEASE Release 19.2     19.2     ***
 DISTRIBUTED ANSYS Mechanical Enterprise                       

 00000000  VERSION=WINDOWS x64   17:31:25  FEB 09, 2019 CP=      0.516

 Vergleich_Ansys--Modalanalyse (A5)                                            



          ***** ANSYS ANALYSIS DEFINITION (PREP7) *****
 *********** Nodes for the whole assembly ***********
 *********** Elements for Body 1 "Schalenk_rper" ***********
 *********** Send User Defined Coordinate System(s) ***********
 *********** Set Reference Temperature ***********
 *********** Send Materials ***********
 *********** Send Sheet Properties ***********
 *********** Fixed Supports ***********


 ***** ROUTINE COMPLETED *****  CP =         0.688


 --- Number of total nodes = 10201
 --- Number of contact elements = 0
 --- Number of spring elements = 0
 --- Number of bearing elements = 0
 --- Number of solid elements = 10000
 --- Number of condensed parts = 0
 --- Number of total elements = 10000

 *GET  _WALLBSOL  FROM  ACTI  ITEM=TIME WALL  VALUE=  17.5236111    

 *****  ANSYS SOLUTION ROUTINE  *****


 PERFORM A MODAL ANALYSIS
  THIS WILL BE A NEW ANALYSIS


 USE SYM. BLOCK LANCZOS MODE EXTRACTION METHOD
  EXTRACT   10 MODES
  NORMALIZE THE MODE SHAPES TO THE MASS MATRIX

 ERASE THE CURRENT DATABASE OUTPUT CONTROL TABLE.


 WRITE ALL  ITEMS TO THE DATABASE WITH A FREQUENCY OF NONE
   FOR ALL APPLICABLE ENTITIES

 WRITE NSOL ITEMS TO THE DATABASE WITH A FREQUENCY OF ALL 
   FOR ALL APPLICABLE ENTITIES


 EXPAND ALL EXTRACTED MODES
  DO NOT CALCULATE ELEMENT RESULTS

 DO NOT COMBINE ELEMENT SAVE DATA FILES (.esav) AFTER DISTRIBUTED PARALLEL SOLUTION

 DO NOT COMBINE ELEMENT MATRIX FILES (.emat) AFTER DISTRIBUTED PARALLEL SOLUTION

 DO NOT COMBINE ASSEMBLED MATRIX FILES (.full) AFTER DISTRIBUTED PARALLEL SOLUTION

 *GET  ANSINTER_  FROM  ACTI  ITEM=INT        VALUE=  0.00000000    

 *IF  ANSINTER_                         ( =   0.00000     )  NE  
      0                                 ( =   0.00000     )  THEN    

 *ENDIF

 *** NOTE ***                            CP =       0.719   TIME= 17:31:25
 The automatic domain decomposition logic has selected the MESH domain   
 decomposition method with 2 processes per solution.                     

 *****  ANSYS SOLVE    COMMAND  *****

 *** WARNING ***                         CP =       0.719   TIME= 17:31:25
 Element shape checking is currently inactive.  Issue SHPP,ON or         
 SHPP,WARN to reactivate, if desired.                                    

 *** NOTE ***                            CP =       0.781   TIME= 17:31:25
 The model data was checked and warning messages were found.             
  Please review output or errors file ( C:\Users\sq437\Google            
 ‘∆∂À”≤≈Ã\Projektarbeit\Analytisch                                       
 Platte\_ProjectScratch\Scr1662\file0.err ) for these warning messages.  

 *** SELECTION OF ELEMENT TECHNOLOGIES FOR APPLICABLE ELEMENTS ***
      --- GIVE SUGGESTIONS AND RESET THE KEY OPTIONS ---

 ELEMENT TYPE    1 IS SHELL181. IT IS ASSOCIATED WITH ELASTOPLASTIC 
 MATERIALS ONLY. KEYOPT(8)=2 IS SUGGESTED AND KEYOPT(3)=2 IS SUGGESTED FOR
 HIGHER ACCURACY OF MEMBRANE STRESSES; OTHERWISE, KEYOPT(3)=0 IS SUGGESTED. 
 KEYOPT(8) HAS BEEN RESET BUT KEYOPT(3) CAN NOT BE RESET HERE. PLEASE RESET 
 IT MANUALLY IF NECESSARY.
  KEYOPT(1-12)=    0    0    2    0    0    0    0    2    0    0    0    0

 ELEMENT TYPE    1 HAS KEYOPT(3)=2. FOR THE SPECIFIED ANALYSIS TYPE, LUMPED MASS
 MATRIX OPTION (LUMPM, ON) IS SUGGESTED.



 *** ANSYS - ENGINEERING ANALYSIS SYSTEM  RELEASE Release 19.2     19.2     ***
 DISTRIBUTED ANSYS Mechanical Enterprise                       

 00000000  VERSION=WINDOWS x64   17:31:25  FEB 09, 2019 CP=      0.812

 Vergleich_Ansys--Modalanalyse (A5)                                            



                       S O L U T I O N   O P T I O N S

   PROBLEM DIMENSIONALITY. . . . . . . . . . . . .3-D                  
   DEGREES OF FREEDOM. . . . . . UX   UY   UZ   ROTX ROTY ROTZ
   ANALYSIS TYPE . . . . . . . . . . . . . . . . .MODAL                
      EXTRACTION METHOD. . . . . . . . . . . . . .BLOCK LANCZOS
   OFFSET TEMPERATURE FROM ABSOLUTE ZERO . . . . .  273.15    
   NUMBER OF MODES TO EXTRACT. . . . . . . . . . .    10
   GLOBALLY ASSEMBLED MATRIX . . . . . . . . . . .SYMMETRIC  
   NUMBER OF MODES TO EXPAND . . . . . . . . . . .ALL
   ELEMENT RESULTS CALCULATION . . . . . . . . . .OFF

 *** NOTE ***                            CP =       0.844   TIME= 17:31:25
 The conditions for direct assembly have been met.  No .emat or .erot    
 files will be produced.                                                 

  
  
     D I S T R I B U T E D   D O M A I N   D E C O M P O S E R
  
  ...Number of elements: 10000
  ...Number of nodes:    10201
  ...Decompose to 2 CPU domains
  ...Element load balance ratio =     1.000


                      L O A D   S T E P   O P T I O N S

   LOAD STEP NUMBER. . . . . . . . . . . . . . . .     1
   THERMAL STRAINS INCLUDED IN THE LOAD VECTOR . .   YES
   PRINT OUTPUT CONTROLS . . . . . . . . . . . . .NO PRINTOUT
   DATABASE OUTPUT CONTROLS
      ITEM     FREQUENCY   COMPONENT
       ALL       NONE               
      NSOL        ALL               



                         ***********  PRECISE MASS SUMMARY  ***********

   TOTAL RIGID BODY MASS MATRIX ABOUT ORIGIN
               Translational mass               |   Coupled translational/rotational mass
         314.00        0.0000        0.0000     |     0.0000        314.00        0.0000    
         0.0000        314.00        0.0000     |    -314.00        0.0000        314.00    
         0.0000        0.0000        314.00     |     0.0000       -314.00        0.0000    
     ------------------------------------------ | ------------------------------------------
                                                |         Rotational mass (inertia)
                                                |     418.67        0.0000       -314.00    
                                                |     0.0000        837.33        0.0000    
                                                |    -314.00        0.0000        418.67    

   TOTAL MASS =  314.00    
     The mass principal axes coincide with the global Cartesian axes

   CENTER OF MASS (X,Y,Z)=    1.0000        0.0000        1.0000    

   TOTAL INERTIA ABOUT CENTER OF MASS
         104.67        0.0000      -0.39790E-11
         0.0000        209.33        0.0000    
       -0.39790E-11    0.0000        104.67    
     The inertia principal axes coincide with the global Cartesian axes


  *** MASS SUMMARY BY ELEMENT TYPE ***

  TYPE      MASS
     1   314.000    

 Range of element maximum matrix coefficients in global coordinates
 Maximum = 1.034292954E+09 at element 3.                                 
 Minimum = 954407037 at element 3045.                                    

   *** ELEMENT MATRIX FORMULATION TIMES
     TYPE    NUMBER   ENAME      TOTAL CP  AVE CP

        1     10000  SHELL181      1.484   0.000148
 Time at end of element matrix formulation CP = 1.953125.                

  BLOCK LANCZOS CALCULATION OF UP TO   10 EIGENVECTORS.
  NUMBER OF EQUATIONS              =        60600
  MAXIMUM WAVEFRONT                =           36
  MAXIMUM MODES STORED             =           10
  MINIMUM EIGENVALUE               =  0.00000E+00
  MAXIMUM EIGENVALUE               =  0.10000E+31


  Local memory allocated for solver              =     57.485 MB
  Local memory required for in-core solution     =     54.891 MB
  Local memory required for out-of-core solution =     22.251 MB

  Total memory allocated for solver              =    115.058 MB
  Total memory required for in-core solution     =    109.865 MB
  Total memory required for out-of-core solution =     44.518 MB

 *** NOTE ***                            CP =       2.594   TIME= 17:31:27
 The Distributed Sparse Matrix Solver used by the Block Lanczos          
 eigensolver is currently running in the in-core memory mode.  This      
 memory mode uses the most amount of memory in order to avoid using the  
 hard drive as much as possible, which most often results in the         
 fastest solution time.  This mode is recommended if enough physical     
 memory is present to accommodate all of the solver data.                

 *** ANSYS - ENGINEERING ANALYSIS SYSTEM  RELEASE Release 19.2     19.2     ***
 DISTRIBUTED ANSYS Mechanical Enterprise                       

 00000000  VERSION=WINDOWS x64   17:31:28  FEB 09, 2019 CP=      3.359

 Vergleich_Ansys--Modalanalyse (A5)                                            



 *** FREQUENCIES FROM BLOCK LANCZOS ITERATION ***

  MODE    FREQUENCY (HERTZ)      


    1     2.161505621434    
    2     5.293666085099    
    3     13.25457266146    
    4     16.93265410130    
    5     19.26510172358    
    6     33.71348775395    
    7     38.15746014186    
    8     39.94207958180    
    9     44.18544231256    
   10     57.82931744138    

 *** ANSYS - ENGINEERING ANALYSIS SYSTEM  RELEASE Release 19.2     19.2     ***
 DISTRIBUTED ANSYS Mechanical Enterprise                       

 00000000  VERSION=WINDOWS x64   17:31:28  FEB 09, 2019 CP=      3.406

 Vergleich_Ansys--Modalanalyse (A5)                                            





          ***** PARTICIPATION FACTOR CALCULATION *****  X  DIRECTION
                                                                                  CUMULATIVE     RATIO EFF.MASS
  MODE   FREQUENCY       PERIOD      PARTIC.FACTOR     RATIO    EFFECTIVE MASS   MASS FRACTION   TO TOTAL MASS
     1     2.16151       0.46264        0.0000        0.000000     0.00000         0.00000         0.00000    
     2     5.29367       0.18891        0.0000        0.000000     0.00000         0.00000         0.00000    
     3     13.2546       0.75446E-01    0.0000        0.000000     0.00000         0.00000         0.00000    
     4     16.9327       0.59057E-01    0.0000        0.000000     0.00000         0.00000         0.00000    
     5     19.2651       0.51907E-01    0.0000        0.000000     0.00000         0.00000         0.00000    
     6     33.7135       0.29662E-01    0.0000        0.000000     0.00000         0.00000         0.00000    
     7     38.1575       0.26207E-01    0.0000        0.000000     0.00000         0.00000         0.00000    
     8     39.9421       0.25036E-01    0.0000        0.000000     0.00000         0.00000         0.00000    
     9     44.1854       0.22632E-01    0.0000        0.000000     0.00000         0.00000         0.00000    
    10     57.8293       0.17292E-01    0.0000        0.000000     0.00000         0.00000         0.00000    



          ***** PARTICIPATION FACTOR CALCULATION *****  Y  DIRECTION
                                                                                  CUMULATIVE     RATIO EFF.MASS
  MODE   FREQUENCY       PERIOD      PARTIC.FACTOR     RATIO    EFFECTIVE MASS   MASS FRACTION   TO TOTAL MASS
     1     2.16151       0.46264        13.850        1.000000     191.817        0.705635        0.610882    
     2     5.29367       0.18891      -0.92982E-06    0.000000    0.864562E-12    0.705635        0.275338E-14
     3     13.2546       0.75446E-01   -7.4132        0.535256     54.9554        0.907799        0.175017    
     4     16.9327       0.59057E-01   -2.1825        0.157582     4.76323        0.925321        0.151695E-01
     5     19.2651       0.51907E-01   0.71982E-05    0.000001    0.518144E-10    0.925321        0.165014E-12
     6     33.7135       0.29662E-01  -0.44546        0.032164    0.198438        0.926051        0.631969E-03
     7     38.1575       0.26207E-01    4.4835        0.323724     20.1020         1.00000        0.640190E-01
     8     39.9421       0.25036E-01   0.28664E-03    0.000021    0.821603E-07     1.00000        0.261657E-09
     9     44.1854       0.22632E-01   0.41530E-05    0.000000    0.172475E-10     1.00000        0.549283E-13
    10     57.8293       0.17292E-01  -0.18112E-04    0.000001    0.328041E-09     1.00000        0.104472E-11
 -----------------------------------------------------------------------------------------------------------------
   sum                                                             271.836                        0.865720    
 -----------------------------------------------------------------------------------------------------------------



          ***** PARTICIPATION FACTOR CALCULATION *****  Z  DIRECTION
                                                                                  CUMULATIVE     RATIO EFF.MASS
  MODE   FREQUENCY       PERIOD      PARTIC.FACTOR     RATIO    EFFECTIVE MASS   MASS FRACTION   TO TOTAL MASS
     1     2.16151       0.46264        0.0000        0.000000     0.00000         0.00000         0.00000    
     2     5.29367       0.18891        0.0000        0.000000     0.00000         0.00000         0.00000    
     3     13.2546       0.75446E-01    0.0000        0.000000     0.00000         0.00000         0.00000    
     4     16.9327       0.59057E-01    0.0000        0.000000     0.00000         0.00000         0.00000    
     5     19.2651       0.51907E-01    0.0000        0.000000     0.00000         0.00000         0.00000    
     6     33.7135       0.29662E-01    0.0000        0.000000     0.00000         0.00000         0.00000    
     7     38.1575       0.26207E-01    0.0000        0.000000     0.00000         0.00000         0.00000    
     8     39.9421       0.25036E-01    0.0000        0.000000     0.00000         0.00000         0.00000    
     9     44.1854       0.22632E-01    0.0000        0.000000     0.00000         0.00000         0.00000    
    10     57.8293       0.17292E-01    0.0000        0.000000     0.00000         0.00000         0.00000    



          ***** PARTICIPATION FACTOR CALCULATION *****ROTX DIRECTION
                                                                                  CUMULATIVE     RATIO EFF.MASS
  MODE   FREQUENCY       PERIOD      PARTIC.FACTOR     RATIO    EFFECTIVE MASS   MASS FRACTION   TO TOTAL MASS
     1     2.16151       0.46264       -13.850        1.000000     191.817        0.528524        0.458159    
     2     5.29367       0.18891        8.4865        0.612752     72.0206        0.726966        0.172023    
     3     13.2546       0.75446E-01    7.4132        0.535255     54.9553        0.878388        0.131262    
     4     16.9327       0.59057E-01    2.1825        0.157583     4.76327        0.891512        0.113772E-01
     5     19.2651       0.51907E-01   -3.6295        0.262059     13.1730        0.927808        0.314641E-01
     6     33.7135       0.29662E-01   0.44547        0.032164    0.198443        0.928355        0.473984E-03
     7     38.1575       0.26207E-01   -4.4835        0.323720     20.1014        0.983742        0.480126E-01
     8     39.9421       0.25036E-01  -0.87758        0.063364    0.770146        0.985864        0.183951E-02
     9     44.1854       0.22632E-01    2.2594        0.163136     5.10488        0.999930        0.121931E-01
    10     57.8293       0.17292E-01   0.15994        0.011548    0.255796E-01     1.00000        0.610974E-04
 -----------------------------------------------------------------------------------------------------------------
   sum                                                             362.930                        0.866865    
 -----------------------------------------------------------------------------------------------------------------



          ***** PARTICIPATION FACTOR CALCULATION *****ROTY DIRECTION
                                                                                  CUMULATIVE     RATIO EFF.MASS
  MODE   FREQUENCY       PERIOD      PARTIC.FACTOR     RATIO    EFFECTIVE MASS   MASS FRACTION   TO TOTAL MASS
     1     2.16151       0.46264        0.0000        0.000000     0.00000         0.00000         0.00000    
     2     5.29367       0.18891        0.0000        0.000000     0.00000         0.00000         0.00000    
     3     13.2546       0.75446E-01    0.0000        0.000000     0.00000         0.00000         0.00000    
     4     16.9327       0.59057E-01    0.0000        0.000000     0.00000         0.00000         0.00000    
     5     19.2651       0.51907E-01    0.0000        0.000000     0.00000         0.00000         0.00000    
     6     33.7135       0.29662E-01    0.0000        0.000000     0.00000         0.00000         0.00000    
     7     38.1575       0.26207E-01    0.0000        0.000000     0.00000         0.00000         0.00000    
     8     39.9421       0.25036E-01    0.0000        0.000000     0.00000         0.00000         0.00000    
     9     44.1854       0.22632E-01    0.0000        0.000000     0.00000         0.00000         0.00000    
    10     57.8293       0.17292E-01    0.0000        0.000000     0.00000         0.00000         0.00000    



          ***** PARTICIPATION FACTOR CALCULATION *****ROTZ DIRECTION
                                                                                  CUMULATIVE     RATIO EFF.MASS
  MODE   FREQUENCY       PERIOD      PARTIC.FACTOR     RATIO    EFFECTIVE MASS   MASS FRACTION   TO TOTAL MASS
     1     2.16151       0.46264        20.148        1.000000     405.945        0.971027        0.969608    
     2     5.29367       0.18891        0.0000        0.000000     0.00000        0.971027         0.00000    
     3     13.2546       0.75446E-01   -3.1923        0.158441     10.1906        0.995403        0.243405E-01
     4     16.9327       0.59057E-01  -0.76599        0.038018    0.586734        0.996806        0.140143E-02
     5     19.2651       0.51907E-01   0.39012E-05    0.000000    0.152196E-10    0.996806        0.363524E-13
     6     33.7135       0.29662E-01  -0.14669        0.007281    0.215181E-01    0.996858        0.513965E-04
     7     38.1575       0.26207E-01    1.1461        0.056886     1.31362         1.00000        0.313762E-02
     8     39.9421       0.25036E-01   0.72185E-04    0.000004    0.521067E-08     1.00000        0.124458E-10
     9     44.1854       0.22632E-01   0.30111E-06    0.000000    0.906650E-13     1.00000        0.216555E-15
    10     57.8293       0.17292E-01  -0.54184E-05    0.000000    0.293589E-10     1.00000        0.701243E-13
 -----------------------------------------------------------------------------------------------------------------
   sum                                                             418.058                        0.998539    
 -----------------------------------------------------------------------------------------------------------------





 *** NOTE ***                            CP =       3.406   TIME= 17:31:28
 The modes requested are mass normalized (Nrmkey on MODOPT).  However,   
 the modal masses and kinetic energies below are calculated with unit    
 normalized modes.                                                       

        ***** MODAL MASSES, KINETIC ENERGIES, AND TRANSLATIONAL EFFECTIVE MASSES SUMMARY *****

                                                                         EFFECTIVE MASS
  MODE  FREQUENCY   MODAL MASS     KENE      |      X-DIR      RATIO%   Y-DIR      RATIO%   Z-DIR      RATIO% 
     1   2.162       77.04       7105.       |     0.000        0.00   191.8       61.09   0.000        0.00
     2   5.294       31.21      0.1727E+05   |     0.000        0.00  0.8646E-12    0.00   0.000        0.00
     3   13.25       12.58      0.4361E+05   |     0.000        0.00   54.96       17.50   0.000        0.00
     4   16.93       6.522      0.3691E+05   |     0.000        0.00   4.763        1.52   0.000        0.00
     5   19.27       7.267      0.5324E+05   |     0.000        0.00  0.5181E-10    0.00   0.000        0.00
     6   33.71       5.579      0.1252E+06   |     0.000        0.00  0.1984        0.06   0.000        0.00
     7   38.16       3.906      0.1123E+06   |     0.000        0.00   20.10        6.40   0.000        0.00
     8   39.94       2.351      0.7403E+05   |     0.000        0.00  0.8216E-07    0.00   0.000        0.00
     9   44.19       2.834      0.1092E+06   |     0.000        0.00  0.1725E-10    0.00   0.000        0.00
    10   57.83       2.254      0.1488E+06   |     0.000        0.00  0.3280E-09    0.00   0.000        0.00
 --------------------------------------------------------------------------------------------------------------
   sum                                       |     0.000        0.00   271.8       86.57   0.000        0.00
 --------------------------------------------------------------------------------------------------------------


 *** ANSYS BINARY FILE STATISTICS
  BUFFER SIZE USED= 16384
        9.562 MB WRITTEN ON ASSEMBLED MATRIX FILE: file0.full
        2.938 MB WRITTEN ON MODAL MATRIX FILE: file0.mode
        4.188 MB WRITTEN ON RESULTS FILE: file0.rst
 *************** Write FE CONNECTORS *********

 WRITE OUT CONSTRAINT EQUATIONS TO FILE= file.ce                                                                                                                                                                                                                                                             

 *GET  _NMODALSOLPROC  FROM  ACTI  ITEM=NUMC       VALUE=  2.00000000    

 FINISH SOLUTION PROCESSING


 ***** ROUTINE COMPLETED *****  CP =         3.578



 PRINTOUT RESUMED BY /GOP

 *GET  _WALLASOL  FROM  ACTI  ITEM=TIME WALL  VALUE=  17.5244444    

 *** ANSYS - ENGINEERING ANALYSIS SYSTEM  RELEASE Release 19.2     19.2     ***
 DISTRIBUTED ANSYS Mechanical Enterprise                       

 00000000  VERSION=WINDOWS x64   17:31:28  FEB 09, 2019 CP=      3.609

 Vergleich_Ansys--Modalanalyse (A5)                                            



          ***** ANSYS RESULTS INTERPRETATION (POST1) *****

 *** NOTE ***                            CP =       3.609   TIME= 17:31:28
 Reading results into the database (SET command) will update the current 
 displacement and force boundary conditions in the database with the     
 values from the results file for that load set.  Note that any          
 subsequent solutions will use these values unless action is taken to    
 either SAVE the current values or not overwrite them (/EXIT,NOSAVE).    

 PRINTOUT RESUMED BY /GOP

 Set Encoding of XML File to:ISO-8859-1

 Set Output of XML File to:
     PARM,     ,     ,     ,     ,     ,     ,     ,     ,     ,     ,     ,
         ,     ,     ,     ,     ,     ,     ,

 DATABASE WRITTEN ON FILE  parm.xml                                                                                                                                                                                                                                                            

 EXIT THE ANSYS POST1 DATABASE PROCESSOR


 ***** ROUTINE COMPLETED *****  CP =         3.781



 PRINTOUT RESUMED BY /GOP

 *GET  _WALLDONE  FROM  ACTI  ITEM=TIME WALL  VALUE=  17.5247222    

 PARAMETER _PREPTIME =     0.000000000    

 PARAMETER _SOLVTIME =     3.000000000    

 PARAMETER _POSTTIME =     1.000000000    

 PARAMETER _TOTALTIM =     4.000000000    

 EXIT ANSYS WITHOUT SAVING DATABASE


 NUMBER OF WARNING MESSAGES ENCOUNTERED=          1
 NUMBER OF ERROR   MESSAGES ENCOUNTERED=          0

+--------- D I S T R I B U T E D   A N S Y S   S T A T I S T I C S ------------+

Release: Release 19.2       Build: 19.2       Update: UP20180808   Platform: WINDOWS x64 
Date Run: 02/09/2019   Time: 17:31     Process ID: 7880
Operating System: Windows 8  (Build: 9200)

Processor Model:        Intel(R) Xeon(R) CPU E5-2670 0 @ 2.60GHz

Compiler: Intel(R) FORTRAN Compiler Version 17.0.4  (Build: 20170411)
          Intel(R) C/C++ Compiler Version 17.0.4  (Build: 20170411)
          Intel(R) Math Kernel Library Version 2017.0.3 Product Build 20170413

Number of machines requested            :    1
Total number of cores available         :   16
Number of physical cores available      :    8
Number of processes requested           :    2
Number of threads per process requested :    1
Total number of cores requested         :    2 (Distributed Memory Parallel)               
MPI Type: INTELMPI
MPI Version: Intel(R) MPI Library 2017 Update 3 for Windows* OS


GPU Acceleration: Not Requested

Job Name: file0
Input File: dummy.dat

  Core                Machine Name   Working Directory
 -----------------------------------------------------
     0                      QX2021   C:\Users\sq437\Google ‘∆∂À”≤≈Ã\Projektarbeit\Analytisch Platte\_ProjectScratch\Scr1662
     1                      QX2021   C:\Users\sq437\Google ‘∆∂À”≤≈Ã\Projektarbeit\Analytisch Platte\_ProjectScratch\Scr1662
 
Latency time from master to core     1 =    2.579 microseconds
 
Communication speed from master to core     1 =  3024.30 MB/sec

Total CPU time for main thread                    :        3.5 seconds
Total CPU time summed for all threads             :        3.8 seconds

Elapsed time spent pre-processing model (/PREP7)  :        0.1 seconds
Elapsed time spent solution - preprocessing       :        0.1 seconds
Elapsed time spent computing solution             :        2.6 seconds
Elapsed time spent solution - postprocessing      :        0.1 seconds
Elapsed time spent post-processing model (/POST1) :        0.1 seconds
 
Eigensolver used                                  :            Block Lanczos
Equation solver computational rate                :        7.5 Gflops

Maximum total memory used                         :      400.0 MB
Maximum total memory allocated                    :     3136.0 MB
Total physical memory available                   :         32 GB

Total amount of I/O written to disk               :        0.0 GB
Total amount of I/O read from disk                :        0.0 GB

+------ E N D   D I S T R I B U T E D   A N S Y S   S T A T I S T I C S -------+


 *---------------------------------------------------------------------------*
 |                                                                           |
 |                       DISTRIBUTED ANSYS RUN COMPLETED                     |
 |                                                                           |
 |---------------------------------------------------------------------------|
 |                                                                           |
 | Ansys Release 19.2          Build 19.2         UP20180808     WINDOWS x64 |
 |                                                                           |
 |---------------------------------------------------------------------------|
 |                                                                           |
 | Database Requested(-db)  1024 MB    Scratch Memory Requested      1024 MB |
 | Maximum Database Used       8 MB    Maximum Scratch Memory Used    199 MB |
 |                                                                           |
 |---------------------------------------------------------------------------|
 |                                                                           |
 |        CP Time      (sec) =          3.844       Time  =  17:31:29        |
 |        Elapsed Time (sec) =          6.000       Date  =  02/09/2019      |
 |                                                                           |
 *---------------------------------------------------------------------------*
